data_image0
_cell_length_a       7.68037
_cell_length_b       7.61764
_cell_length_c       7.68037
_cell_angle_alpha    90
_cell_angle_beta     90.7183
_cell_angle_gamma    90

_symmetry_space_group_name_H-M    "P 1"
_symmetry_int_tables_number       1

loop_
  _symmetry_equiv_pos_as_xyz
  'x, y, z'

loop_
  _atom_site_label
  _atom_site_occupancy
  _atom_site_fract_x
  _atom_site_fract_y
  _atom_site_fract_z
  _atom_site_thermal_displace_type
  _atom_site_B_iso_or_equiv
  _atom_site_type_symbol
  Mn1      1.0000 0.75000  1.00000  0.25000  Biso   1.000  Mn
  Mn2      1.0000 0.25000  0.00000  0.75000  Biso   1.000  Mn
  Mn3      1.0000 0.25000  0.00000  0.25000  Biso   1.000  Mn
  Mn4      1.0000 0.75000  1.00000  0.75000  Biso   1.000  Mn
  Mn5      1.0000 0.75001  0.50000  0.25000  Biso   1.000  Mn
  Mn6      1.0000 0.25000  0.50000  0.75000  Biso   1.000  Mn
  Mn7      1.0000 0.24999  0.50000  0.25000  Biso   1.000  Mn
  Mn8      1.0000 0.75001  0.50000  0.75000  Biso   1.000  Mn
  O1       1.0000 0.22454  0.25000  0.27539  Biso   1.000  O 
  O2       1.0000 0.72455  0.25000  0.77538  Biso   1.000  O 
  O3       1.0000 0.77547  0.75000  0.72461  Biso   1.000  O 
  O4       1.0000 0.27545  0.75000  0.22461  Biso   1.000  O 
  O5       1.0000 0.72462  0.75000  0.27546  Biso   1.000  O 
  O6       1.0000 0.22461  0.75000  0.77546  Biso   1.000  O 
  O7       1.0000 0.27538  0.25000  0.72454  Biso   1.000  O 
  O8       1.0000 0.77539  0.25000  0.22454  Biso   1.000  O 
  O9       1.0000 0.75398  0.02783  0.50003  Biso   1.000  O 
  O10      1.0000 0.25398  0.02783  0.00003  Biso   1.000  O 
  O11      1.0000 0.24602  0.97217  0.49997  Biso   1.000  O 
  O12      1.0000 0.74603  0.97217  0.99997  Biso   1.000  O 
  O13      1.0000 0.99997  0.97216  0.24602  Biso   1.000  O 
  O14      1.0000 0.49997  0.97217  0.74603  Biso   1.000  O 
  O15      1.0000 0.00003  0.02784  0.75398  Biso   1.000  O 
  O16      1.0000 0.50003  0.02783  0.25397  Biso   1.000  O 
  O17      1.0000 0.24602  0.52783  0.49997  Biso   1.000  O 
  O18      1.0000 0.74603  0.52784  0.99997  Biso   1.000  O 
  O19      1.0000 0.75399  0.47217  0.50003  Biso   1.000  O 
  O20      1.0000 0.25397  0.47216  0.00003  Biso   1.000  O 
  O21      1.0000 0.00003  0.47217  0.75398  Biso   1.000  O 
  O22      1.0000 0.50003  0.47217  0.25398  Biso   1.000  O 
  O23      1.0000 0.99997  0.52783  0.24602  Biso   1.000  O 
  O24      1.0000 0.49997  0.52783  0.74602  Biso   1.000  O 
  Sr1      1.0000 0.50216  0.25001  0.50039  Biso   1.000  Sr
  Sr2      1.0000 0.00215  0.25000  0.00039  Biso   1.000  Sr
  Sr3      1.0000 0.49785  0.74999  0.49961  Biso   1.000  Sr
  Sr4      1.0000 0.99785  0.75000  0.99961  Biso   1.000  Sr
  Sr5      1.0000 0.99962  0.75000  0.49785  Biso   1.000  Sr
  Sr6      1.0000 0.49961  0.74999  0.99785  Biso   1.000  Sr
  Sr7      1.0000 0.00039  0.25000  0.50215  Biso   1.000  Sr
  Sr8      1.0000 0.50039  0.25001  0.00215  Biso   1.000  Sr
